16

Al      0.000000029987194     -0.000000015414782      9.974395629323718
Al      2.832411472942475     -0.000000017735218      9.974395637947211
Al      1.416205749455279      2.452940295836237      9.974395629978362
Al      4.248617202301018      2.452940293515800      9.974395638601859
Al      1.416205757806794      0.817646753921174     12.306677232844526
Al      4.248617210652534      0.817646751600738     12.306677241468021
Al      2.832411477274879      3.270587065172194     12.306677233499169
Al      5.664822930120616      3.270587062851757     12.306677242122660
Al     -0.000000637624121      1.635293576116649     14.625496791921035
Al      2.832411382325248      1.635294074439347     14.625494466799440
Al      1.416206097187812      4.088232223525654     14.625497507657009
Al      4.248616779195151      4.088232749013073     14.625494306206718
Al     -0.000004421125554     -0.000002377895157     16.959567421721243
Al      2.832416070975694     -0.000000385386617     16.959567719604333
Al      1.416204389743190      2.452942188918373     16.959566987797885
Al      4.248619238875170      2.452942307182025     16.959566594184039
