   63
8.548054   8.548054   8.548054  90.000000  90.000000  90.000000
Mg    -0.000002    -0.000402    -0.000002
Mg     0.000001     0.001408     4.274018
Mg    -0.000015     4.275999    -0.000015
Mg    -0.000004     4.274247     4.274023
Mg     4.274018     0.001408     0.000001
Mg     4.274025    -0.000638     4.274025
Mg     4.274023     4.274247    -0.000004
Mg     4.274028     4.276127     4.274028
Mg    -0.000000     2.164693     2.110089
Mg    -0.000001     2.164699     6.437957
Mg    -0.000001     6.438668     2.163140
Mg    -0.000001     6.438744     6.384898
Mg     4.274027     2.164774     2.108173
Mg     4.274027     2.164775     6.439881
Mg     4.274028     6.438660     2.110837
Mg     4.274027     6.438663     6.437207
Mg     2.109890     0.000807     2.109890
Mg     2.109885     0.000809     6.438160
Mg     2.109908     4.274901     2.109908
Mg     2.109899     4.274906     6.438141
Mg     6.438160     0.000809     2.109885
Mg     6.438165     0.000812     6.438165
Mg     6.438141     4.274906     2.109899
Mg     6.438150     4.274914     6.438150
Mg     2.110089     2.164693    -0.000000
Mg     2.108173     2.164774     4.274027
Mg     2.163140     6.438668    -0.000001
Mg     2.110837     6.438660     4.274028
Mg     6.437957     2.164699    -0.000001
Mg     6.439881     2.164775     4.274027
Mg     6.384898     6.438744    -0.000001
Mg     6.437207     6.438663     4.274027
 O     0.000002     0.015703     2.132296
 O     0.000003     0.015704     6.415756
 O     0.000003     4.285965     2.131499
 O     0.000003     4.285978     6.416554
 O     4.274037     0.016062     2.125156
 O     4.274037     0.016060     6.422906
 O     4.274034     4.287399     2.123329
 O     4.274035     4.287395     6.424733
 O     0.000005     2.151572     0.000005
 O     0.000004     2.152282     4.274036
 O    -0.000020     6.426420    -0.000020
 O    -0.000000     6.426502     4.273987
 O     4.274036     2.152282     0.000004
 O     4.273987     6.426502    -0.000000
 O     4.274032     6.426114     4.274032
 O     2.132296     0.015703     0.000002
 O     2.125156     0.016062     4.274037
 O     2.131499     4.285965     0.000003
 O     2.123329     4.287399     4.274034
 O     6.415756     0.015704     0.000003
 O     6.422906     0.016060     4.274037
 O     6.416554     4.285978     0.000003
 O     6.424733     4.287395     4.274035
 O     2.124774     2.151076     2.124774
 O     2.124774     2.151074     6.423289
 O     2.130997     6.425940     2.130997
 O     2.130989     6.425945     6.417046
 O     6.423289     2.151074     2.124774
 O     6.423289     2.151073     6.423289
 O     6.417046     6.425945     2.130989
 O     6.417055     6.425949     6.417055
