64
8.548054   8.548054   8.548054  90.000000  90.000000  90.000000
Mg     0.000000     0.002899     0.000000
Mg     0.000000     0.001486     4.274027
Mg    -0.000000     4.276408    -0.000000
Mg     0.000000     4.278202     4.274027
Mg     4.274027     0.001486     0.000000
Mg     4.274027     4.278202     0.000000
Mg    -0.000000     2.181830     2.135785
Mg     0.000000     2.181830     6.412269
Mg    -0.000000     6.455918     2.137195
Mg     0.000000     6.455919     6.410859
Mg     4.274027     6.455894     2.136759
Mg     4.274027     6.455894     6.411295
Mg     2.137018     0.002658     2.137018
Mg     2.137018     0.002658     6.411036
Mg     2.137057     4.276675     2.137057
Mg     2.137058     4.276675     6.410997
Mg     6.411036     0.002658     2.137018
Mg     6.411036     0.002658     6.411036
Mg     6.410997     4.276675     2.137058
Mg     6.410997     4.276675     6.410997
Mg     2.135785     2.181830    -0.000000
Mg     2.137195     6.455918    -0.000000
Mg     2.136759     6.455894     4.274027
Mg     6.412269     2.181830     0.000000
Mg     6.410859     6.455919     0.000000
Mg     6.411295     6.455894     4.274027
Mg1    4.274027     0.001296     4.274027
Mg1    4.274027     4.277139     4.274027
Mg1    4.274027     2.181931     2.091269
Mg1    4.274027     2.181931     6.456785
Mg1    2.091269     2.181931     4.274027
Mg1    6.456785     2.181931     4.274027
 O    -0.000000     0.024658     2.139448
 O    -0.000000     0.024653     6.408606
 O     0.000000     4.294578     2.138613
 O     0.000000     4.294574     6.409442
 O     4.274027     0.026164     2.134987
 O     4.274027     0.026163     6.413066
 O     4.274027     4.295607     2.132390
 O     4.274027     4.295607     6.415663
 O    -0.000000     2.161847    -0.000000
 O    -0.000000     2.163204     4.274027
 O     0.000001     6.436902     0.000001
 O     0.000000     6.437002     4.274028
 O     4.274027     2.163204    -0.000000
 O     4.274028     6.437002     0.000000
 O     4.274027     6.435820     4.274027
 O     2.139448     0.024658    -0.000000
 O     2.134987     0.026164     4.274027
 O     2.138613     4.294578     0.000000
 O     2.132390     4.295607     4.274027
 O     6.408606     0.024653    -0.000000
 O     6.413066     0.026163     4.274027
 O     6.409442     4.294574     0.000000
 O     6.415663     4.295607     4.274027
 O     2.134131     2.161475     2.134131
 O     2.134131     2.161473     6.413923
 O     2.138144     6.436768     2.138144
 O     2.138145     6.436766     6.409911
 O     6.413923     2.161473     2.134131
 O     6.413923     2.161472     6.413923
 O     6.409911     6.436766     2.138145
 O     6.409910     6.436763     6.409910
 OX    4.274027     2.167693     4.274027